[General]
network = project.BlockchainNetwork
sim-time-limit = 50s
**.numPeers = 3
**.node[*].blockGenInterval = exponential(5s)

# Record stats
output-scalar-file = results.sca
